real_dimer_1_24.xyz
 OpenBabel06022119233D

132150  0  0  0  0  0  0  0  0999 V2000
   11.8770   33.6380   28.0750 C   0  0  0  0  0  0  0  0  0  0  0  0
   11.9550   34.4850   27.3970 H   0  0  0  0  0  0  0  0  0  0  0  0
   11.7970   32.3260   27.5200 C   0  0  0  0  0  0  0  0  0  0  0  0
   11.7880   33.8260   29.4240 C   0  0  0  0  0  0  0  0  0  0  0  0
   11.6310   31.2020   28.3770 C   0  0  0  0  0  0  0  0  0  0  0  0
   11.8830   32.1370   26.1090 C   0  0  0  0  0  0  0  0  0  0  0  0
   11.7470   34.8260   29.8480 H   0  0  0  0  0  0  0  0  0  0  0  0
   11.8250   32.7090   30.3110 C   0  0  0  0  0  0  0  0  0  0  0  0
   11.9290   31.3900   29.7860 C   0  0  0  0  0  0  0  0  0  0  0  0
   11.1710   29.9590   27.7770 C   0  0  0  0  0  0  0  0  0  0  0  0
   12.0590   33.0040   25.4780 H   0  0  0  0  0  0  0  0  0  0  0  0
   11.8190   30.8820   25.5780 C   0  0  0  0  0  0  0  0  0  0  0  0
   11.7580   32.9080   31.7230 C   0  0  0  0  0  0  0  0  0  0  0  0
   12.3260   30.3320   30.6990 C   0  0  0  0  0  0  0  0  0  0  0  0
   10.4130   28.9190   28.4540 C   0  0  0  0  0  0  0  0  0  0  0  0
   11.4460   29.7700   26.3900 C   0  0  0  0  0  0  0  0  0  0  0  0
   11.9840   30.7160   24.5170 H   0  0  0  0  0  0  0  0  0  0  0  0
   11.6390   33.9200   32.1000 H   0  0  0  0  0  0  0  0  0  0  0  0
   11.7680   31.8390   32.5720 C   0  0  0  0  0  0  0  0  0  0  0  0
   12.9840   29.0930   30.3110 C   0  0  0  0  0  0  0  0  0  0  0  0
   12.0560   30.5290   32.0830 C   0  0  0  0  0  0  0  0  0  0  0  0
    9.5400   29.1370   29.6030 C   0  0  0  0  0  0  0  0  0  0  0  0
   10.4090   27.6190   27.8790 C   0  0  0  0  0  0  0  0  0  0  0  0
   11.3240   28.4760   25.8080 C   0  0  0  0  0  0  0  0  0  0  0  0
   11.6130   31.9710   33.6390 H   0  0  0  0  0  0  0  0  0  0  0  0
   13.8380   28.9140   29.1490 C   0  0  0  0  0  0  0  0  0  0  0  0
   12.8120   27.9730   31.1760 C   0  0  0  0  0  0  0  0  0  0  0  0
   12.0720   29.4170   32.9760 C   0  0  0  0  0  0  0  0  0  0  0  0
    8.9920   28.0080   30.2910 C   0  0  0  0  0  0  0  0  0  0  0  0
    9.0810   30.4180   30.0030 C   0  0  0  0  0  0  0  0  0  0  0  0
   10.9120   27.4150   26.5610 C   0  0  0  0  0  0  0  0  0  0  0  0
    9.8480   26.5140   28.5930 C   0  0  0  0  0  0  0  0  0  0  0  0
   11.5960   28.3480   24.7640 H   0  0  0  0  0  0  0  0  0  0  0  0
   14.6100   29.9730   28.5080 C   0  0  0  0  0  0  0  0  0  0  0  0
   14.0490   27.5890   28.6790 C   0  0  0  0  0  0  0  0  0  0  0  0
   12.3360   28.1640   32.5070 C   0  0  0  0  0  0  0  0  0  0  0  0
   13.1400   26.6630   30.7210 C   0  0  0  0  0  0  0  0  0  0  0  0
   11.8140   29.5830   34.0180 H   0  0  0  0  0  0  0  0  0  0  0  0
    9.2200   26.6900   29.7870 C   0  0  0  0  0  0  0  0  0  0  0  0
    8.1510   28.2050   31.4140 C   0  0  0  0  0  0  0  0  0  0  0  0
    9.3780   31.2890   29.4350 H   0  0  0  0  0  0  0  0  0  0  0  0
    8.2270   30.5840   31.0760 C   0  0  0  0  0  0  0  0  0  0  0  0
   10.8820   26.4120   26.1420 H   0  0  0  0  0  0  0  0  0  0  0  0
    9.9360   25.5230   28.1530 H   0  0  0  0  0  0  0  0  0  0  0  0
   14.8680   31.2280   29.1180 C   0  0  0  0  0  0  0  0  0  0  0  0
   15.2670   29.7100   27.2650 C   0  0  0  0  0  0  0  0  0  0  0  0
   13.6500   26.4730   29.4700 C   0  0  0  0  0  0  0  0  0  0  0  0
   14.7160   27.3610   27.4330 C   0  0  0  0  0  0  0  0  0  0  0  0
   12.2520   27.2960   33.1570 H   0  0  0  0  0  0  0  0  0  0  0  0
   12.9440   25.8200   31.3790 H   0  0  0  0  0  0  0  0  0  0  0  0
    8.8120   25.8430   30.3340 H   0  0  0  0  0  0  0  0  0  0  0  0
    7.7700   27.3290   31.9340 H   0  0  0  0  0  0  0  0  0  0  0  0
    7.7810   29.4710   31.8150 C   0  0  0  0  0  0  0  0  0  0  0  0
    7.8920   31.5820   31.3420 H   0  0  0  0  0  0  0  0  0  0  0  0
   14.4870   31.4240   30.1110 H   0  0  0  0  0  0  0  0  0  0  0  0
   15.6310   32.1970   28.4960 C   0  0  0  0  0  0  0  0  0  0  0  0
   15.2480   28.3890   26.7180 C   0  0  0  0  0  0  0  0  0  0  0  0
   16.0110   30.7330   26.6280 C   0  0  0  0  0  0  0  0  0  0  0  0
   13.8390   25.4720   29.0910 H   0  0  0  0  0  0  0  0  0  0  0  0
   14.7870   26.3380   27.0710 H   0  0  0  0  0  0  0  0  0  0  0  0
    7.1230   29.6080   32.6690 H   0  0  0  0  0  0  0  0  0  0  0  0
   15.8120   33.1410   29.0020 H   0  0  0  0  0  0  0  0  0  0  0  0
   16.1830   31.9650   27.2210 C   0  0  0  0  0  0  0  0  0  0  0  0
   15.7370   28.2110   25.7630 H   0  0  0  0  0  0  0  0  0  0  0  0
   16.4780   30.5120   25.6700 H   0  0  0  0  0  0  0  0  0  0  0  0
   16.7690   32.7370   26.7280 H   0  0  0  0  0  0  0  0  0  0  0  0
   13.7870   24.5110   34.8070 C   0  0  0  0  0  0  0  0  0  0  0  0
   13.9830   25.3530   34.1490 H   0  0  0  0  0  0  0  0  0  0  0  0
   14.1150   23.2010   34.3520 C   0  0  0  0  0  0  0  0  0  0  0  0
   13.2770   24.7010   36.0580 C   0  0  0  0  0  0  0  0  0  0  0  0
   13.9430   22.0800   35.2180 C   0  0  0  0  0  0  0  0  0  0  0  0
   14.5910   23.0100   33.0210 C   0  0  0  0  0  0  0  0  0  0  0  0
   13.0880   25.7020   36.4370 H   0  0  0  0  0  0  0  0  0  0  0  0
   12.8780   23.5850   36.8500 C   0  0  0  0  0  0  0  0  0  0  0  0
   14.6010   20.8420   34.8300 C   0  0  0  0  0  0  0  0  0  0  0  0
   13.0890   22.2600   36.3800 C   0  0  0  0  0  0  0  0  0  0  0  0
   14.6750   23.8780   32.3710 H   0  0  0  0  0  0  0  0  0  0  0  0
   14.8550   21.7560   32.5530 C   0  0  0  0  0  0  0  0  0  0  0  0
   12.2110   23.8130   38.0960 C   0  0  0  0  0  0  0  0  0  0  0  0
   14.9980   19.7840   35.7420 C   0  0  0  0  0  0  0  0  0  0  0  0
   14.8710   20.6440   33.4450 C   0  0  0  0  0  0  0  0  0  0  0  0
   12.3170   21.2000   37.0200 C   0  0  0  0  0  0  0  0  0  0  0  0
   15.1130   21.5900   31.5100 H   0  0  0  0  0  0  0  0  0  0  0  0
   12.1400   24.8360   38.4570 H   0  0  0  0  0  0  0  0  0  0  0  0
   11.6790   22.7850   38.8100 C   0  0  0  0  0  0  0  0  0  0  0  0
   15.2960   19.9720   37.1510 C   0  0  0  0  0  0  0  0  0  0  0  0
   15.1020   18.4650   35.2170 C   0  0  0  0  0  0  0  0  0  0  0  0
   15.1590   19.3350   32.9570 C   0  0  0  0  0  0  0  0  0  0  0  0
   12.0590   19.9450   36.4110 C   0  0  0  0  0  0  0  0  0  0  0  0
   11.6590   21.4640   38.2640 C   0  0  0  0  0  0  0  0  0  0  0  0
   11.1900   22.9630   39.7650 H   0  0  0  0  0  0  0  0  0  0  0  0
   15.7560   21.2150   37.7510 C   0  0  0  0  0  0  0  0  0  0  0  0
   15.1300   18.8480   38.0090 C   0  0  0  0  0  0  0  0  0  0  0  0
   15.1690   18.2660   33.8050 C   0  0  0  0  0  0  0  0  0  0  0  0
   15.1390   17.3480   36.1040 C   0  0  0  0  0  0  0  0  0  0  0  0
   15.3140   19.2020   31.8890 H   0  0  0  0  0  0  0  0  0  0  0  0
   12.4400   19.7500   35.4180 H   0  0  0  0  0  0  0  0  0  0  0  0
   11.2960   18.9760   37.0330 C   0  0  0  0  0  0  0  0  0  0  0  0
   10.9160   20.4410   38.9010 C   0  0  0  0  0  0  0  0  0  0  0  0
   16.5140   22.2550   37.0740 C   0  0  0  0  0  0  0  0  0  0  0  0
   15.4810   21.4040   39.1380 C   0  0  0  0  0  0  0  0  0  0  0  0
   15.0500   17.5350   37.4530 C   0  0  0  0  0  0  0  0  0  0  0  0
   15.0440   19.0360   39.4200 C   0  0  0  0  0  0  0  0  0  0  0  0
   15.2880   17.2530   33.4280 H   0  0  0  0  0  0  0  0  0  0  0  0
   15.1800   16.3480   35.6800 H   0  0  0  0  0  0  0  0  0  0  0  0
   11.1150   18.0320   36.5260 H   0  0  0  0  0  0  0  0  0  0  0  0
   10.7440   19.2080   38.3070 C   0  0  0  0  0  0  0  0  0  0  0  0
   10.4490   20.6620   39.8580 H   0  0  0  0  0  0  0  0  0  0  0  0
   17.3870   22.0370   35.9260 C   0  0  0  0  0  0  0  0  0  0  0  0
   16.5180   23.5540   37.6500 C   0  0  0  0  0  0  0  0  0  0  0  0
   15.1080   20.2910   39.9500 C   0  0  0  0  0  0  0  0  0  0  0  0
   15.6030   22.6980   39.7200 C   0  0  0  0  0  0  0  0  0  0  0  0
   14.9720   16.6890   38.1310 H   0  0  0  0  0  0  0  0  0  0  0  0
   14.8680   18.1690   40.0510 H   0  0  0  0  0  0  0  0  0  0  0  0
   10.1580   18.4370   38.8000 H   0  0  0  0  0  0  0  0  0  0  0  0
   17.9350   23.1660   35.2370 C   0  0  0  0  0  0  0  0  0  0  0  0
   17.8460   20.7560   35.5250 C   0  0  0  0  0  0  0  0  0  0  0  0
   16.0140   23.7590   38.9670 C   0  0  0  0  0  0  0  0  0  0  0  0
   17.0790   24.6600   36.9350 C   0  0  0  0  0  0  0  0  0  0  0  0
   14.9430   20.4580   41.0120 H   0  0  0  0  0  0  0  0  0  0  0  0
   15.3310   22.8250   40.7650 H   0  0  0  0  0  0  0  0  0  0  0  0
   17.7070   24.4840   35.7410 C   0  0  0  0  0  0  0  0  0  0  0  0
   18.7760   22.9690   34.1150 C   0  0  0  0  0  0  0  0  0  0  0  0
   17.5490   19.8850   36.0940 H   0  0  0  0  0  0  0  0  0  0  0  0
   18.7000   20.5900   34.4520 C   0  0  0  0  0  0  0  0  0  0  0  0
   16.0450   24.7620   39.3860 H   0  0  0  0  0  0  0  0  0  0  0  0
   16.9910   25.6510   37.3750 H   0  0  0  0  0  0  0  0  0  0  0  0
   18.1150   25.3310   35.1940 H   0  0  0  0  0  0  0  0  0  0  0  0
   19.1570   23.8450   33.5940 H   0  0  0  0  0  0  0  0  0  0  0  0
   19.1460   21.7030   33.7140 C   0  0  0  0  0  0  0  0  0  0  0  0
   19.0350   19.5910   34.1860 H   0  0  0  0  0  0  0  0  0  0  0  0
   19.8040   21.5660   32.8600 H   0  0  0  0  0  0  0  0  0  0  0  0
  1  4  2  0  0  0  0
  2  1  1  0  0  0  0
  3  1  1  0  0  0  0
  3  5  2  0  0  0  0
  4  7  1  0  0  0  0
  4  8  1  0  0  0  0
  5  9  1  0  0  0  0
  6  3  1  0  0  0  0
  8 13  1  0  0  0  0
  9  8  2  0  0  0  0
  9 14  1  0  0  0  0
 10  5  1  0  0  0  0
 10 15  2  0  0  0  0
 11  6  1  0  0  0  0
 12  6  2  0  0  0  0
 12 16  1  0  0  0  0
 13 18  1  0  0  0  0
 13 19  2  0  0  0  0
 14 21  1  0  0  0  0
 15 22  1  0  0  0  0
 16 10  1  0  0  0  0
 17 12  1  0  0  0  0
 19 25  1  0  0  0  0
 20 14  2  0  0  0  0
 20 27  1  0  0  0  0
 21 19  1  0  0  0  0
 21 28  2  0  0  0  0
 22 30  2  0  0  0  0
 22 29  1  0  0  0  0
 23 15  1  0  0  0  0
 23 32  1  0  0  0  0
 24 16  2  0  0  0  0
 24 31  1  0  0  0  0
 26 20  1  0  0  0  0
 27 36  2  0  0  0  0
 28 38  1  0  0  0  0
 29 40  2  0  0  0  0
 30 42  1  0  0  0  0
 31 23  2  0  0  0  0
 32 39  2  0  0  0  0
 33 24  1  0  0  0  0
 34 45  1  0  0  0  0
 34 26  2  0  0  0  0
 35 26  1  0  0  0  0
 35 47  1  0  0  0  0
 36 28  1  0  0  0  0
 36 49  1  0  0  0  0
 37 27  1  0  0  0  0
 37 50  1  0  0  0  0
 39 29  1  0  0  0  0
 39 51  1  0  0  0  0
 40 53  1  0  0  0  0
 40 52  1  0  0  0  0
 41 30  1  0  0  0  0
 42 54  1  0  0  0  0
 42 53  2  0  0  0  0
 43 31  1  0  0  0  0
 44 32  1  0  0  0  0
 45 55  1  0  0  0  0
 46 34  1  0  0  0  0
 47 37  2  0  0  0  0
 48 35  2  0  0  0  0
 53 61  1  0  0  0  0
 56 62  1  0  0  0  0
 56 45  2  0  0  0  0
 57 46  2  0  0  0  0
 57 48  1  0  0  0  0
 58 63  2  0  0  0  0
 58 46  1  0  0  0  0
 59 47  1  0  0  0  0
 60 48  1  0  0  0  0
 63 56  1  0  0  0  0
 64 57  1  0  0  0  0
 65 58  1  0  0  0  0
 66 63  1  0  0  0  0
 67 70  1  0  0  0  0
 68 67  1  0  0  0  0
 69 67  2  0  0  0  0
 69 71  1  0  0  0  0
 70 73  1  0  0  0  0
 70 74  2  0  0  0  0
 71 76  2  0  0  0  0
 72 69  1  0  0  0  0
 74 79  1  0  0  0  0
 75 71  1  0  0  0  0
 75 80  1  0  0  0  0
 76 74  1  0  0  0  0
 76 82  1  0  0  0  0
 77 72  1  0  0  0  0
 78 72  2  0  0  0  0
 78 81  1  0  0  0  0
 79 84  1  0  0  0  0
 79 85  2  0  0  0  0
 80 86  1  0  0  0  0
 81 75  2  0  0  0  0
 82 90  1  0  0  0  0
 83 78  1  0  0  0  0
 85 91  1  0  0  0  0
 86 92  2  0  0  0  0
 86 93  1  0  0  0  0
 87 80  2  0  0  0  0
 87 95  1  0  0  0  0
 88 81  1  0  0  0  0
 88 94  2  0  0  0  0
 89 82  2  0  0  0  0
 89 98  1  0  0  0  0
 90 85  1  0  0  0  0
 90 99  2  0  0  0  0
 92101  1  0  0  0  0
 93103  2  0  0  0  0
 94 87  1  0  0  0  0
 95102  2  0  0  0  0
 96 88  1  0  0  0  0
 97 89  1  0  0  0  0
 98107  2  0  0  0  0
 99108  1  0  0  0  0
100110  1  0  0  0  0
100 92  1  0  0  0  0
101112  1  0  0  0  0
101111  2  0  0  0  0
102 93  1  0  0  0  0
102113  1  0  0  0  0
103111  1  0  0  0  0
103114  1  0  0  0  0
104 94  1  0  0  0  0
105 95  1  0  0  0  0
106 98  1  0  0  0  0
107115  1  0  0  0  0
107 99  1  0  0  0  0
109100  2  0  0  0  0
110118  1  0  0  0  0
111120  1  0  0  0  0
112121  1  0  0  0  0
116122  2  0  0  0  0
116109  1  0  0  0  0
117109  1  0  0  0  0
117124  1  0  0  0  0
118126  1  0  0  0  0
118112  2  0  0  0  0
119127  1  0  0  0  0
119110  2  0  0  0  0
122119  1  0  0  0  0
123116  1  0  0  0  0
125117  2  0  0  0  0
128122  1  0  0  0  0
129123  1  0  0  0  0
130123  2  0  0  0  0
130125  1  0  0  0  0
131125  1  0  0  0  0
132130  1  0  0  0  0
M  END
$$$$
