real_dimer_1_0.xyz
 OpenBabel06022119233D

132150  0  0  0  0  0  0  0  0999 V2000
   11.8770   33.6380   28.0750 C   0  0  0  0  0  0  0  0  0  0  0  0
   11.9550   34.4850   27.3970 H   0  0  0  0  0  0  0  0  0  0  0  0
   11.7970   32.3260   27.5200 C   0  0  0  0  0  0  0  0  0  0  0  0
   11.7880   33.8260   29.4240 C   0  0  0  0  0  0  0  0  0  0  0  0
   11.6310   31.2020   28.3770 C   0  0  0  0  0  0  0  0  0  0  0  0
   11.8830   32.1370   26.1090 C   0  0  0  0  0  0  0  0  0  0  0  0
   11.7470   34.8260   29.8480 H   0  0  0  0  0  0  0  0  0  0  0  0
   11.8250   32.7090   30.3110 C   0  0  0  0  0  0  0  0  0  0  0  0
   11.9290   31.3900   29.7860 C   0  0  0  0  0  0  0  0  0  0  0  0
   11.1710   29.9590   27.7770 C   0  0  0  0  0  0  0  0  0  0  0  0
   12.0590   33.0040   25.4780 H   0  0  0  0  0  0  0  0  0  0  0  0
   11.8190   30.8820   25.5780 C   0  0  0  0  0  0  0  0  0  0  0  0
   11.7580   32.9080   31.7230 C   0  0  0  0  0  0  0  0  0  0  0  0
   12.3260   30.3320   30.6990 C   0  0  0  0  0  0  0  0  0  0  0  0
   10.4130   28.9190   28.4540 C   0  0  0  0  0  0  0  0  0  0  0  0
   11.4460   29.7700   26.3900 C   0  0  0  0  0  0  0  0  0  0  0  0
   11.9840   30.7160   24.5170 H   0  0  0  0  0  0  0  0  0  0  0  0
   11.6390   33.9200   32.1000 H   0  0  0  0  0  0  0  0  0  0  0  0
   11.7680   31.8390   32.5720 C   0  0  0  0  0  0  0  0  0  0  0  0
   12.9840   29.0930   30.3110 C   0  0  0  0  0  0  0  0  0  0  0  0
   12.0560   30.5290   32.0830 C   0  0  0  0  0  0  0  0  0  0  0  0
    9.5400   29.1370   29.6030 C   0  0  0  0  0  0  0  0  0  0  0  0
   10.4090   27.6190   27.8790 C   0  0  0  0  0  0  0  0  0  0  0  0
   11.3240   28.4760   25.8080 C   0  0  0  0  0  0  0  0  0  0  0  0
   11.6130   31.9710   33.6390 H   0  0  0  0  0  0  0  0  0  0  0  0
   13.8380   28.9140   29.1490 C   0  0  0  0  0  0  0  0  0  0  0  0
   12.8120   27.9730   31.1760 C   0  0  0  0  0  0  0  0  0  0  0  0
   12.0720   29.4170   32.9760 C   0  0  0  0  0  0  0  0  0  0  0  0
    8.9920   28.0080   30.2910 C   0  0  0  0  0  0  0  0  0  0  0  0
    9.0810   30.4180   30.0030 C   0  0  0  0  0  0  0  0  0  0  0  0
   10.9120   27.4150   26.5610 C   0  0  0  0  0  0  0  0  0  0  0  0
    9.8480   26.5140   28.5930 C   0  0  0  0  0  0  0  0  0  0  0  0
   11.5960   28.3480   24.7640 H   0  0  0  0  0  0  0  0  0  0  0  0
   14.6100   29.9730   28.5080 C   0  0  0  0  0  0  0  0  0  0  0  0
   14.0490   27.5890   28.6790 C   0  0  0  0  0  0  0  0  0  0  0  0
   12.3360   28.1640   32.5070 C   0  0  0  0  0  0  0  0  0  0  0  0
   13.1400   26.6630   30.7210 C   0  0  0  0  0  0  0  0  0  0  0  0
   11.8140   29.5830   34.0180 H   0  0  0  0  0  0  0  0  0  0  0  0
    9.2200   26.6900   29.7870 C   0  0  0  0  0  0  0  0  0  0  0  0
    8.1510   28.2050   31.4140 C   0  0  0  0  0  0  0  0  0  0  0  0
    9.3780   31.2890   29.4350 H   0  0  0  0  0  0  0  0  0  0  0  0
    8.2270   30.5840   31.0760 C   0  0  0  0  0  0  0  0  0  0  0  0
   10.8820   26.4120   26.1420 H   0  0  0  0  0  0  0  0  0  0  0  0
    9.9360   25.5230   28.1530 H   0  0  0  0  0  0  0  0  0  0  0  0
   14.8680   31.2280   29.1180 C   0  0  0  0  0  0  0  0  0  0  0  0
   15.2670   29.7100   27.2650 C   0  0  0  0  0  0  0  0  0  0  0  0
   13.6500   26.4730   29.4700 C   0  0  0  0  0  0  0  0  0  0  0  0
   14.7160   27.3610   27.4330 C   0  0  0  0  0  0  0  0  0  0  0  0
   12.2520   27.2960   33.1570 H   0  0  0  0  0  0  0  0  0  0  0  0
   12.9440   25.8200   31.3790 H   0  0  0  0  0  0  0  0  0  0  0  0
    8.8120   25.8430   30.3340 H   0  0  0  0  0  0  0  0  0  0  0  0
    7.7700   27.3290   31.9340 H   0  0  0  0  0  0  0  0  0  0  0  0
    7.7810   29.4710   31.8150 C   0  0  0  0  0  0  0  0  0  0  0  0
    7.8920   31.5820   31.3420 H   0  0  0  0  0  0  0  0  0  0  0  0
   14.4870   31.4240   30.1110 H   0  0  0  0  0  0  0  0  0  0  0  0
   15.6310   32.1970   28.4960 C   0  0  0  0  0  0  0  0  0  0  0  0
   15.2480   28.3890   26.7180 C   0  0  0  0  0  0  0  0  0  0  0  0
   16.0110   30.7330   26.6280 C   0  0  0  0  0  0  0  0  0  0  0  0
   13.8390   25.4720   29.0910 H   0  0  0  0  0  0  0  0  0  0  0  0
   14.7870   26.3380   27.0710 H   0  0  0  0  0  0  0  0  0  0  0  0
    7.1230   29.6080   32.6690 H   0  0  0  0  0  0  0  0  0  0  0  0
   15.8120   33.1410   29.0020 H   0  0  0  0  0  0  0  0  0  0  0  0
   16.1830   31.9650   27.2210 C   0  0  0  0  0  0  0  0  0  0  0  0
   15.7370   28.2110   25.7630 H   0  0  0  0  0  0  0  0  0  0  0  0
   16.4780   30.5120   25.6700 H   0  0  0  0  0  0  0  0  0  0  0  0
   16.7690   32.7370   26.7280 H   0  0  0  0  0  0  0  0  0  0  0  0
   14.4550   34.5930   25.5970 C   0  0  0  0  0  0  0  0  0  0  0  0
   14.3780   33.7470   26.2750 H   0  0  0  0  0  0  0  0  0  0  0  0
   14.5350   35.9060   26.1520 C   0  0  0  0  0  0  0  0  0  0  0  0
   14.5440   34.4060   24.2480 C   0  0  0  0  0  0  0  0  0  0  0  0
   14.7010   37.0300   25.2950 C   0  0  0  0  0  0  0  0  0  0  0  0
   14.4490   36.0940   27.5630 C   0  0  0  0  0  0  0  0  0  0  0  0
   14.5850   33.4060   23.8240 H   0  0  0  0  0  0  0  0  0  0  0  0
   14.5070   35.5230   23.3610 C   0  0  0  0  0  0  0  0  0  0  0  0
   14.4030   36.8420   23.8860 C   0  0  0  0  0  0  0  0  0  0  0  0
   15.1620   38.2730   25.8950 C   0  0  0  0  0  0  0  0  0  0  0  0
   14.2730   35.2270   28.1950 H   0  0  0  0  0  0  0  0  0  0  0  0
   14.5140   37.3490   28.0940 C   0  0  0  0  0  0  0  0  0  0  0  0
   14.5740   35.3240   21.9490 C   0  0  0  0  0  0  0  0  0  0  0  0
   14.0060   37.9000   22.9730 C   0  0  0  0  0  0  0  0  0  0  0  0
   15.9190   39.3130   25.2180 C   0  0  0  0  0  0  0  0  0  0  0  0
   14.8860   38.4610   27.2820 C   0  0  0  0  0  0  0  0  0  0  0  0
   14.3480   37.5160   29.1550 H   0  0  0  0  0  0  0  0  0  0  0  0
   14.6930   34.3110   21.5720 H   0  0  0  0  0  0  0  0  0  0  0  0
   14.5650   36.3930   21.1000 C   0  0  0  0  0  0  0  0  0  0  0  0
   13.3490   39.1380   23.3610 C   0  0  0  0  0  0  0  0  0  0  0  0
   14.2770   37.7020   21.5890 C   0  0  0  0  0  0  0  0  0  0  0  0
   16.7930   39.0950   24.0690 C   0  0  0  0  0  0  0  0  0  0  0  0
   15.9230   40.6120   25.7930 C   0  0  0  0  0  0  0  0  0  0  0  0
   15.0090   39.7560   27.8640 C   0  0  0  0  0  0  0  0  0  0  0  0
   14.7190   36.2600   20.0330 H   0  0  0  0  0  0  0  0  0  0  0  0
   12.4940   39.3180   24.5240 C   0  0  0  0  0  0  0  0  0  0  0  0
   13.5200   40.2590   22.4960 C   0  0  0  0  0  0  0  0  0  0  0  0
   14.2600   38.8140   20.6960 C   0  0  0  0  0  0  0  0  0  0  0  0
   17.3410   40.2240   23.3810 C   0  0  0  0  0  0  0  0  0  0  0  0
   17.2510   37.8140   23.6690 C   0  0  0  0  0  0  0  0  0  0  0  0
   15.4200   40.8170   27.1110 C   0  0  0  0  0  0  0  0  0  0  0  0
   16.4840   41.7180   25.0790 C   0  0  0  0  0  0  0  0  0  0  0  0
   14.7360   39.8830   28.9080 H   0  0  0  0  0  0  0  0  0  0  0  0
   11.7220   38.2580   25.1640 C   0  0  0  0  0  0  0  0  0  0  0  0
   12.2830   40.6430   24.9940 C   0  0  0  0  0  0  0  0  0  0  0  0
   13.9970   40.0680   21.1650 C   0  0  0  0  0  0  0  0  0  0  0  0
   13.1920   41.5690   22.9510 C   0  0  0  0  0  0  0  0  0  0  0  0
   14.5180   38.6480   19.6540 H   0  0  0  0  0  0  0  0  0  0  0  0
   17.1130   41.5420   23.8850 C   0  0  0  0  0  0  0  0  0  0  0  0
   18.1820   40.0270   22.2580 C   0  0  0  0  0  0  0  0  0  0  0  0
   16.9540   36.9430   24.2370 H   0  0  0  0  0  0  0  0  0  0  0  0
   18.1050   37.6480   22.5960 C   0  0  0  0  0  0  0  0  0  0  0  0
   15.4500   41.8200   27.5300 H   0  0  0  0  0  0  0  0  0  0  0  0
   16.3960   42.7080   25.5190 H   0  0  0  0  0  0  0  0  0  0  0  0
   11.4650   37.0030   24.5540 C   0  0  0  0  0  0  0  0  0  0  0  0
   11.0650   38.5220   26.4070 C   0  0  0  0  0  0  0  0  0  0  0  0
   12.6820   41.7590   24.2020 C   0  0  0  0  0  0  0  0  0  0  0  0
   11.6160   40.8710   26.2390 C   0  0  0  0  0  0  0  0  0  0  0  0
   14.0800   40.9360   20.5150 H   0  0  0  0  0  0  0  0  0  0  0  0
   13.3890   42.4110   22.2930 H   0  0  0  0  0  0  0  0  0  0  0  0
   17.5200   42.3890   23.3380 H   0  0  0  0  0  0  0  0  0  0  0  0
   18.5620   40.9030   21.7380 H   0  0  0  0  0  0  0  0  0  0  0  0
   18.5520   38.7610   21.8570 C   0  0  0  0  0  0  0  0  0  0  0  0
   18.4400   36.6490   22.3300 H   0  0  0  0  0  0  0  0  0  0  0  0
   11.8460   36.8080   23.5610 H   0  0  0  0  0  0  0  0  0  0  0  0
   10.7010   36.0340   25.1760 C   0  0  0  0  0  0  0  0  0  0  0  0
   11.0840   39.8430   26.9540 C   0  0  0  0  0  0  0  0  0  0  0  0
   10.3210   37.4990   27.0450 C   0  0  0  0  0  0  0  0  0  0  0  0
   12.4930   42.7600   24.5810 H   0  0  0  0  0  0  0  0  0  0  0  0
   11.5450   41.8930   26.6010 H   0  0  0  0  0  0  0  0  0  0  0  0
   19.2100   38.6240   21.0030 H   0  0  0  0  0  0  0  0  0  0  0  0
   10.5200   35.0900   24.6700 H   0  0  0  0  0  0  0  0  0  0  0  0
   10.1490   36.2660   26.4510 C   0  0  0  0  0  0  0  0  0  0  0  0
   10.5950   40.0210   27.9090 H   0  0  0  0  0  0  0  0  0  0  0  0
    9.8540   37.7200   28.0020 H   0  0  0  0  0  0  0  0  0  0  0  0
    9.5640   35.4950   26.9440 H   0  0  0  0  0  0  0  0  0  0  0  0
  1  4  2  0  0  0  0
  2  1  1  0  0  0  0
  3  1  1  0  0  0  0
  3  5  2  0  0  0  0
  4  7  1  0  0  0  0
  4  8  1  0  0  0  0
  5  9  1  0  0  0  0
  6  3  1  0  0  0  0
  8 13  1  0  0  0  0
  9  8  2  0  0  0  0
  9 14  1  0  0  0  0
 10  5  1  0  0  0  0
 10 15  2  0  0  0  0
 11  6  1  0  0  0  0
 12  6  2  0  0  0  0
 12 16  1  0  0  0  0
 13 18  1  0  0  0  0
 13 19  2  0  0  0  0
 14 21  1  0  0  0  0
 15 22  1  0  0  0  0
 16 10  1  0  0  0  0
 17 12  1  0  0  0  0
 19 25  1  0  0  0  0
 20 14  2  0  0  0  0
 20 27  1  0  0  0  0
 21 19  1  0  0  0  0
 21 28  2  0  0  0  0
 22 30  2  0  0  0  0
 22 29  1  0  0  0  0
 23 15  1  0  0  0  0
 23 32  1  0  0  0  0
 24 16  2  0  0  0  0
 24 31  1  0  0  0  0
 26 20  1  0  0  0  0
 27 36  2  0  0  0  0
 28 38  1  0  0  0  0
 29 40  2  0  0  0  0
 30 42  1  0  0  0  0
 31 23  2  0  0  0  0
 32 39  2  0  0  0  0
 33 24  1  0  0  0  0
 34 45  1  0  0  0  0
 34 26  2  0  0  0  0
 35 26  1  0  0  0  0
 35 47  1  0  0  0  0
 36 28  1  0  0  0  0
 36 49  1  0  0  0  0
 37 27  1  0  0  0  0
 37 50  1  0  0  0  0
 39 29  1  0  0  0  0
 39 51  1  0  0  0  0
 40 53  1  0  0  0  0
 40 52  1  0  0  0  0
 41 30  1  0  0  0  0
 42 54  1  0  0  0  0
 42 53  2  0  0  0  0
 43 31  1  0  0  0  0
 44 32  1  0  0  0  0
 45 55  1  0  0  0  0
 46 34  1  0  0  0  0
 47 37  2  0  0  0  0
 48 35  2  0  0  0  0
 53 61  1  0  0  0  0
 56 62  1  0  0  0  0
 56 45  2  0  0  0  0
 57 46  2  0  0  0  0
 57 48  1  0  0  0  0
 58 63  2  0  0  0  0
 58 46  1  0  0  0  0
 59 47  1  0  0  0  0
 60 48  1  0  0  0  0
 63 56  1  0  0  0  0
 64 57  1  0  0  0  0
 65 58  1  0  0  0  0
 66 63  1  0  0  0  0
 67 69  1  0  0  0  0
 67 68  1  0  0  0  0
 69 72  1  0  0  0  0
 70 67  2  0  0  0  0
 71 76  1  0  0  0  0
 71 69  2  0  0  0  0
 72 78  2  0  0  0  0
 72 77  1  0  0  0  0
 73 70  1  0  0  0  0
 74 75  1  0  0  0  0
 74 70  1  0  0  0  0
 75 71  1  0  0  0  0
 76 82  1  0  0  0  0
 78 83  1  0  0  0  0
 79 74  2  0  0  0  0
 80 86  1  0  0  0  0
 80 75  2  0  0  0  0
 81 89  1  0  0  0  0
 81 76  2  0  0  0  0
 82 90  2  0  0  0  0
 82 78  1  0  0  0  0
 84 79  1  0  0  0  0
 85 87  2  0  0  0  0
 85 79  1  0  0  0  0
 86 92  1  0  0  0  0
 87 80  1  0  0  0  0
 88 81  1  0  0  0  0
 89 97  2  0  0  0  0
 90 99  1  0  0  0  0
 91 85  1  0  0  0  0
 92101  2  0  0  0  0
 92100  1  0  0  0  0
 93103  1  0  0  0  0
 93 86  2  0  0  0  0
 94102  2  0  0  0  0
 94 87  1  0  0  0  0
 95105  1  0  0  0  0
 95 88  2  0  0  0  0
 96 88  1  0  0  0  0
 96107  1  0  0  0  0
 97109  1  0  0  0  0
 97 90  1  0  0  0  0
 98110  1  0  0  0  0
 98 89  1  0  0  0  0
100112  1  0  0  0  0
101114  1  0  0  0  0
102 93  1  0  0  0  0
103113  2  0  0  0  0
104 94  1  0  0  0  0
105 98  2  0  0  0  0
106 95  1  0  0  0  0
108 96  2  0  0  0  0
111100  2  0  0  0  0
111122  1  0  0  0  0
112123  1  0  0  0  0
112124  2  0  0  0  0
113125  1  0  0  0  0
113101  1  0  0  0  0
114126  1  0  0  0  0
114123  2  0  0  0  0
115102  1  0  0  0  0
116103  1  0  0  0  0
117105  1  0  0  0  0
118106  1  0  0  0  0
119106  2  0  0  0  0
119108  1  0  0  0  0
120108  1  0  0  0  0
121111  1  0  0  0  0
122129  2  0  0  0  0
123130  1  0  0  0  0
124131  1  0  0  0  0
127119  1  0  0  0  0
128122  1  0  0  0  0
129132  1  0  0  0  0
129124  1  0  0  0  0
M  END
$$$$
