real_dimer_1_13.xyz
 OpenBabel06022119233D

132150  0  0  0  0  0  0  0  0999 V2000
   11.8770   33.6380   28.0750 C   0  0  0  0  0  0  0  0  0  0  0  0
   11.9550   34.4850   27.3970 H   0  0  0  0  0  0  0  0  0  0  0  0
   11.7970   32.3260   27.5200 C   0  0  0  0  0  0  0  0  0  0  0  0
   11.7880   33.8260   29.4240 C   0  0  0  0  0  0  0  0  0  0  0  0
   11.6310   31.2020   28.3770 C   0  0  0  0  0  0  0  0  0  0  0  0
   11.8830   32.1370   26.1090 C   0  0  0  0  0  0  0  0  0  0  0  0
   11.7470   34.8260   29.8480 H   0  0  0  0  0  0  0  0  0  0  0  0
   11.8250   32.7090   30.3110 C   0  0  0  0  0  0  0  0  0  0  0  0
   11.9290   31.3900   29.7860 C   0  0  0  0  0  0  0  0  0  0  0  0
   11.1710   29.9590   27.7770 C   0  0  0  0  0  0  0  0  0  0  0  0
   12.0590   33.0040   25.4780 H   0  0  0  0  0  0  0  0  0  0  0  0
   11.8190   30.8820   25.5780 C   0  0  0  0  0  0  0  0  0  0  0  0
   11.7580   32.9080   31.7230 C   0  0  0  0  0  0  0  0  0  0  0  0
   12.3260   30.3320   30.6990 C   0  0  0  0  0  0  0  0  0  0  0  0
   10.4130   28.9190   28.4540 C   0  0  0  0  0  0  0  0  0  0  0  0
   11.4460   29.7700   26.3900 C   0  0  0  0  0  0  0  0  0  0  0  0
   11.9840   30.7160   24.5170 H   0  0  0  0  0  0  0  0  0  0  0  0
   11.6390   33.9200   32.1000 H   0  0  0  0  0  0  0  0  0  0  0  0
   11.7680   31.8390   32.5720 C   0  0  0  0  0  0  0  0  0  0  0  0
   12.9840   29.0930   30.3110 C   0  0  0  0  0  0  0  0  0  0  0  0
   12.0560   30.5290   32.0830 C   0  0  0  0  0  0  0  0  0  0  0  0
    9.5400   29.1370   29.6030 C   0  0  0  0  0  0  0  0  0  0  0  0
   10.4090   27.6190   27.8790 C   0  0  0  0  0  0  0  0  0  0  0  0
   11.3240   28.4760   25.8080 C   0  0  0  0  0  0  0  0  0  0  0  0
   11.6130   31.9710   33.6390 H   0  0  0  0  0  0  0  0  0  0  0  0
   13.8380   28.9140   29.1490 C   0  0  0  0  0  0  0  0  0  0  0  0
   12.8120   27.9730   31.1760 C   0  0  0  0  0  0  0  0  0  0  0  0
   12.0720   29.4170   32.9760 C   0  0  0  0  0  0  0  0  0  0  0  0
    8.9920   28.0080   30.2910 C   0  0  0  0  0  0  0  0  0  0  0  0
    9.0810   30.4180   30.0030 C   0  0  0  0  0  0  0  0  0  0  0  0
   10.9120   27.4150   26.5610 C   0  0  0  0  0  0  0  0  0  0  0  0
    9.8480   26.5140   28.5930 C   0  0  0  0  0  0  0  0  0  0  0  0
   11.5960   28.3480   24.7640 H   0  0  0  0  0  0  0  0  0  0  0  0
   14.6100   29.9730   28.5080 C   0  0  0  0  0  0  0  0  0  0  0  0
   14.0490   27.5890   28.6790 C   0  0  0  0  0  0  0  0  0  0  0  0
   12.3360   28.1640   32.5070 C   0  0  0  0  0  0  0  0  0  0  0  0
   13.1400   26.6630   30.7210 C   0  0  0  0  0  0  0  0  0  0  0  0
   11.8140   29.5830   34.0180 H   0  0  0  0  0  0  0  0  0  0  0  0
    9.2200   26.6900   29.7870 C   0  0  0  0  0  0  0  0  0  0  0  0
    8.1510   28.2050   31.4140 C   0  0  0  0  0  0  0  0  0  0  0  0
    9.3780   31.2890   29.4350 H   0  0  0  0  0  0  0  0  0  0  0  0
    8.2270   30.5840   31.0760 C   0  0  0  0  0  0  0  0  0  0  0  0
   10.8820   26.4120   26.1420 H   0  0  0  0  0  0  0  0  0  0  0  0
    9.9360   25.5230   28.1530 H   0  0  0  0  0  0  0  0  0  0  0  0
   14.8680   31.2280   29.1180 C   0  0  0  0  0  0  0  0  0  0  0  0
   15.2670   29.7100   27.2650 C   0  0  0  0  0  0  0  0  0  0  0  0
   13.6500   26.4730   29.4700 C   0  0  0  0  0  0  0  0  0  0  0  0
   14.7160   27.3610   27.4330 C   0  0  0  0  0  0  0  0  0  0  0  0
   12.2520   27.2960   33.1570 H   0  0  0  0  0  0  0  0  0  0  0  0
   12.9440   25.8200   31.3790 H   0  0  0  0  0  0  0  0  0  0  0  0
    8.8120   25.8430   30.3340 H   0  0  0  0  0  0  0  0  0  0  0  0
    7.7700   27.3290   31.9340 H   0  0  0  0  0  0  0  0  0  0  0  0
    7.7810   29.4710   31.8150 C   0  0  0  0  0  0  0  0  0  0  0  0
    7.8920   31.5820   31.3420 H   0  0  0  0  0  0  0  0  0  0  0  0
   14.4870   31.4240   30.1110 H   0  0  0  0  0  0  0  0  0  0  0  0
   15.6310   32.1970   28.4960 C   0  0  0  0  0  0  0  0  0  0  0  0
   15.2480   28.3890   26.7180 C   0  0  0  0  0  0  0  0  0  0  0  0
   16.0110   30.7330   26.6280 C   0  0  0  0  0  0  0  0  0  0  0  0
   13.8390   25.4720   29.0910 H   0  0  0  0  0  0  0  0  0  0  0  0
   14.7870   26.3380   27.0710 H   0  0  0  0  0  0  0  0  0  0  0  0
    7.1230   29.6080   32.6690 H   0  0  0  0  0  0  0  0  0  0  0  0
   15.8120   33.1410   29.0020 H   0  0  0  0  0  0  0  0  0  0  0  0
   16.1830   31.9650   27.2210 C   0  0  0  0  0  0  0  0  0  0  0  0
   15.7370   28.2110   25.7630 H   0  0  0  0  0  0  0  0  0  0  0  0
   16.4780   30.5120   25.6700 H   0  0  0  0  0  0  0  0  0  0  0  0
   16.7690   32.7370   26.7280 H   0  0  0  0  0  0  0  0  0  0  0  0
    8.8330   30.7330   35.1820 C   0  0  0  0  0  0  0  0  0  0  0  0
    9.3000   30.5120   34.2250 H   0  0  0  0  0  0  0  0  0  0  0  0
    8.0900   29.7100   35.8200 C   0  0  0  0  0  0  0  0  0  0  0  0
    9.0050   31.9650   35.7760 C   0  0  0  0  0  0  0  0  0  0  0  0
    7.4320   29.9730   37.0630 C   0  0  0  0  0  0  0  0  0  0  0  0
    8.0710   28.3890   35.2730 C   0  0  0  0  0  0  0  0  0  0  0  0
    9.5910   32.7370   35.2830 H   0  0  0  0  0  0  0  0  0  0  0  0
    8.4530   32.1970   37.0510 C   0  0  0  0  0  0  0  0  0  0  0  0
    6.6600   28.9140   37.7030 C   0  0  0  0  0  0  0  0  0  0  0  0
    7.6900   31.2280   37.6730 C   0  0  0  0  0  0  0  0  0  0  0  0
    8.5590   28.2110   34.3180 H   0  0  0  0  0  0  0  0  0  0  0  0
    7.5380   27.3610   35.9880 C   0  0  0  0  0  0  0  0  0  0  0  0
    8.6350   33.1410   37.5570 H   0  0  0  0  0  0  0  0  0  0  0  0
    5.8060   29.0930   38.8660 C   0  0  0  0  0  0  0  0  0  0  0  0
    6.8710   27.5890   37.2330 C   0  0  0  0  0  0  0  0  0  0  0  0
    7.3090   31.4240   38.6660 H   0  0  0  0  0  0  0  0  0  0  0  0
    7.6100   26.3380   35.6260 H   0  0  0  0  0  0  0  0  0  0  0  0
    5.1480   30.3320   39.2540 C   0  0  0  0  0  0  0  0  0  0  0  0
    5.6340   27.9730   39.7310 C   0  0  0  0  0  0  0  0  0  0  0  0
    6.4720   26.4730   38.0250 C   0  0  0  0  0  0  0  0  0  0  0  0
    4.7520   31.3900   38.3410 C   0  0  0  0  0  0  0  0  0  0  0  0
    4.8780   30.5290   40.6380 C   0  0  0  0  0  0  0  0  0  0  0  0
    5.1580   28.1640   41.0620 C   0  0  0  0  0  0  0  0  0  0  0  0
    5.9620   26.6630   39.2760 C   0  0  0  0  0  0  0  0  0  0  0  0
    6.6620   25.4720   37.6460 H   0  0  0  0  0  0  0  0  0  0  0  0
    4.4540   31.2020   36.9320 C   0  0  0  0  0  0  0  0  0  0  0  0
    4.6470   32.7090   38.8660 C   0  0  0  0  0  0  0  0  0  0  0  0
    4.5900   31.8390   41.1270 C   0  0  0  0  0  0  0  0  0  0  0  0
    4.8950   29.4170   41.5310 C   0  0  0  0  0  0  0  0  0  0  0  0
    5.0740   27.2960   41.7120 H   0  0  0  0  0  0  0  0  0  0  0  0
    5.7660   25.8200   39.9340 H   0  0  0  0  0  0  0  0  0  0  0  0
    3.9930   29.9590   36.3320 C   0  0  0  0  0  0  0  0  0  0  0  0
    4.6190   32.3260   36.0740 C   0  0  0  0  0  0  0  0  0  0  0  0
    4.5800   32.9080   40.2780 C   0  0  0  0  0  0  0  0  0  0  0  0
    4.6100   33.8260   37.9790 C   0  0  0  0  0  0  0  0  0  0  0  0
    4.4350   31.9710   42.1940 H   0  0  0  0  0  0  0  0  0  0  0  0
    4.6360   29.5830   42.5730 H   0  0  0  0  0  0  0  0  0  0  0  0
    3.2350   28.9190   37.0090 C   0  0  0  0  0  0  0  0  0  0  0  0
    4.2680   29.7700   34.9450 C   0  0  0  0  0  0  0  0  0  0  0  0
    4.7000   33.6380   36.6300 C   0  0  0  0  0  0  0  0  0  0  0  0
    4.7050   32.1370   34.6640 C   0  0  0  0  0  0  0  0  0  0  0  0
    4.4620   33.9200   40.6550 H   0  0  0  0  0  0  0  0  0  0  0  0
    4.5690   34.8260   38.4030 H   0  0  0  0  0  0  0  0  0  0  0  0
    2.3620   29.1370   38.1580 C   0  0  0  0  0  0  0  0  0  0  0  0
    3.2320   27.6190   36.4340 C   0  0  0  0  0  0  0  0  0  0  0  0
    4.6410   30.8820   34.1330 C   0  0  0  0  0  0  0  0  0  0  0  0
    4.1460   28.4760   34.3630 C   0  0  0  0  0  0  0  0  0  0  0  0
    4.7770   34.4850   35.9520 H   0  0  0  0  0  0  0  0  0  0  0  0
    4.8820   33.0040   34.0320 H   0  0  0  0  0  0  0  0  0  0  0  0
    1.8140   28.0080   38.8460 C   0  0  0  0  0  0  0  0  0  0  0  0
    1.9030   30.4180   38.5580 C   0  0  0  0  0  0  0  0  0  0  0  0
    3.7350   27.4150   35.1160 C   0  0  0  0  0  0  0  0  0  0  0  0
    2.6700   26.5140   37.1480 C   0  0  0  0  0  0  0  0  0  0  0  0
    4.8060   30.7160   33.0720 H   0  0  0  0  0  0  0  0  0  0  0  0
    4.4190   28.3480   33.3190 H   0  0  0  0  0  0  0  0  0  0  0  0
    2.0420   26.6900   38.3420 C   0  0  0  0  0  0  0  0  0  0  0  0
    0.9730   28.2050   39.9690 C   0  0  0  0  0  0  0  0  0  0  0  0
    2.2010   31.2890   37.9900 H   0  0  0  0  0  0  0  0  0  0  0  0
    1.0490   30.5840   39.6310 C   0  0  0  0  0  0  0  0  0  0  0  0
    3.7040   26.4120   34.6970 H   0  0  0  0  0  0  0  0  0  0  0  0
    2.7580   25.5230   36.7080 H   0  0  0  0  0  0  0  0  0  0  0  0
    1.6340   25.8430   38.8890 H   0  0  0  0  0  0  0  0  0  0  0  0
    0.5930   27.3290   40.4890 H   0  0  0  0  0  0  0  0  0  0  0  0
    0.6030   29.4710   40.3700 C   0  0  0  0  0  0  0  0  0  0  0  0
    0.7140   31.5820   39.8970 H   0  0  0  0  0  0  0  0  0  0  0  0
   -0.0550   29.6080   41.2240 H   0  0  0  0  0  0  0  0  0  0  0  0
  1  4  2  0  0  0  0
  2  1  1  0  0  0  0
  3  1  1  0  0  0  0
  3  5  2  0  0  0  0
  4  7  1  0  0  0  0
  4  8  1  0  0  0  0
  5  9  1  0  0  0  0
  6  3  1  0  0  0  0
  8 13  1  0  0  0  0
  9  8  2  0  0  0  0
  9 14  1  0  0  0  0
 10  5  1  0  0  0  0
 10 15  2  0  0  0  0
 11  6  1  0  0  0  0
 12  6  2  0  0  0  0
 12 16  1  0  0  0  0
 13 18  1  0  0  0  0
 13 19  2  0  0  0  0
 14 21  1  0  0  0  0
 15 22  1  0  0  0  0
 16 10  1  0  0  0  0
 17 12  1  0  0  0  0
 19 25  1  0  0  0  0
 20 14  2  0  0  0  0
 20 27  1  0  0  0  0
 21 19  1  0  0  0  0
 21 28  2  0  0  0  0
 22 30  2  0  0  0  0
 22 29  1  0  0  0  0
 23 15  1  0  0  0  0
 23 32  1  0  0  0  0
 24 16  2  0  0  0  0
 24 31  1  0  0  0  0
 26 20  1  0  0  0  0
 27 36  2  0  0  0  0
 28 38  1  0  0  0  0
 29 40  2  0  0  0  0
 30 42  1  0  0  0  0
 31 23  2  0  0  0  0
 32 39  2  0  0  0  0
 33 24  1  0  0  0  0
 34 45  1  0  0  0  0
 34 26  2  0  0  0  0
 35 26  1  0  0  0  0
 35 47  1  0  0  0  0
 36 28  1  0  0  0  0
 36 49  1  0  0  0  0
 37 27  1  0  0  0  0
 37 50  1  0  0  0  0
 39 29  1  0  0  0  0
 39 51  1  0  0  0  0
 40 53  1  0  0  0  0
 40 52  1  0  0  0  0
 41 30  1  0  0  0  0
 42 54  1  0  0  0  0
 42 53  2  0  0  0  0
 43 31  1  0  0  0  0
 44 32  1  0  0  0  0
 45 55  1  0  0  0  0
 46 34  1  0  0  0  0
 47 37  2  0  0  0  0
 48 35  2  0  0  0  0
 53 61  1  0  0  0  0
 56 62  1  0  0  0  0
 56 45  2  0  0  0  0
 57 46  2  0  0  0  0
 57 48  1  0  0  0  0
 58 63  2  0  0  0  0
 58 46  1  0  0  0  0
 59 47  1  0  0  0  0
 60 48  1  0  0  0  0
 63 56  1  0  0  0  0
 64 57  1  0  0  0  0
 65 58  1  0  0  0  0
 66 63  1  0  0  0  0
 67 70  2  0  0  0  0
 67 69  1  0  0  0  0
 68 67  1  0  0  0  0
 69 71  1  0  0  0  0
 70 74  1  0  0  0  0
 71 76  1  0  0  0  0
 71 75  2  0  0  0  0
 72 69  2  0  0  0  0
 72 78  1  0  0  0  0
 73 70  1  0  0  0  0
 74 79  1  0  0  0  0
 74 76  2  0  0  0  0
 75 80  1  0  0  0  0
 76 82  1  0  0  0  0
 77 72  1  0  0  0  0
 78 81  2  0  0  0  0
 80 84  2  0  0  0  0
 80 85  1  0  0  0  0
 81 75  1  0  0  0  0
 81 86  1  0  0  0  0
 83 78  1  0  0  0  0
 84 88  1  0  0  0  0
 85 89  2  0  0  0  0
 86 90  2  0  0  0  0
 87 93  1  0  0  0  0
 87 84  1  0  0  0  0
 88 94  1  0  0  0  0
 88 95  2  0  0  0  0
 89 95  1  0  0  0  0
 89 96  1  0  0  0  0
 90 85  1  0  0  0  0
 90 97  1  0  0  0  0
 91 86  1  0  0  0  0
 92 87  2  0  0  0  0
 93100  1  0  0  0  0
 94102  1  0  0  0  0
 95103  1  0  0  0  0
 98 92  1  0  0  0  0
 98104  1  0  0  0  0
 99106  2  0  0  0  0
 99 92  1  0  0  0  0
100108  1  0  0  0  0
100 94  2  0  0  0  0
101109  1  0  0  0  0
101 93  2  0  0  0  0
104110  1  0  0  0  0
105 98  2  0  0  0  0
106101  1  0  0  0  0
107 99  1  0  0  0  0
110117  2  0  0  0  0
110116  1  0  0  0  0
111104  2  0  0  0  0
111119  1  0  0  0  0
112107  2  0  0  0  0
112105  1  0  0  0  0
113105  1  0  0  0  0
113118  2  0  0  0  0
114106  1  0  0  0  0
115107  1  0  0  0  0
116123  2  0  0  0  0
117125  1  0  0  0  0
118111  1  0  0  0  0
119122  2  0  0  0  0
120112  1  0  0  0  0
121113  1  0  0  0  0
122116  1  0  0  0  0
122128  1  0  0  0  0
123130  1  0  0  0  0
123129  1  0  0  0  0
124117  1  0  0  0  0
125131  1  0  0  0  0
125130  2  0  0  0  0
126118  1  0  0  0  0
127119  1  0  0  0  0
130132  1  0  0  0  0
M  END
$$$$
