real_dimer_1_15.xyz
 OpenBabel06022119233D

132150  0  0  0  0  0  0  0  0999 V2000
   11.8770   33.6380   28.0750 C   0  0  0  0  0  0  0  0  0  0  0  0
   11.9550   34.4850   27.3970 H   0  0  0  0  0  0  0  0  0  0  0  0
   11.7970   32.3260   27.5200 C   0  0  0  0  0  0  0  0  0  0  0  0
   11.7880   33.8260   29.4240 C   0  0  0  0  0  0  0  0  0  0  0  0
   11.6310   31.2020   28.3770 C   0  0  0  0  0  0  0  0  0  0  0  0
   11.8830   32.1370   26.1090 C   0  0  0  0  0  0  0  0  0  0  0  0
   11.7470   34.8260   29.8480 H   0  0  0  0  0  0  0  0  0  0  0  0
   11.8250   32.7090   30.3110 C   0  0  0  0  0  0  0  0  0  0  0  0
   11.9290   31.3900   29.7860 C   0  0  0  0  0  0  0  0  0  0  0  0
   11.1710   29.9590   27.7770 C   0  0  0  0  0  0  0  0  0  0  0  0
   12.0590   33.0040   25.4780 H   0  0  0  0  0  0  0  0  0  0  0  0
   11.8190   30.8820   25.5780 C   0  0  0  0  0  0  0  0  0  0  0  0
   11.7580   32.9080   31.7230 C   0  0  0  0  0  0  0  0  0  0  0  0
   12.3260   30.3320   30.6990 C   0  0  0  0  0  0  0  0  0  0  0  0
   10.4130   28.9190   28.4540 C   0  0  0  0  0  0  0  0  0  0  0  0
   11.4460   29.7700   26.3900 C   0  0  0  0  0  0  0  0  0  0  0  0
   11.9840   30.7160   24.5170 H   0  0  0  0  0  0  0  0  0  0  0  0
   11.6390   33.9200   32.1000 H   0  0  0  0  0  0  0  0  0  0  0  0
   11.7680   31.8390   32.5720 C   0  0  0  0  0  0  0  0  0  0  0  0
   12.9840   29.0930   30.3110 C   0  0  0  0  0  0  0  0  0  0  0  0
   12.0560   30.5290   32.0830 C   0  0  0  0  0  0  0  0  0  0  0  0
    9.5400   29.1370   29.6030 C   0  0  0  0  0  0  0  0  0  0  0  0
   10.4090   27.6190   27.8790 C   0  0  0  0  0  0  0  0  0  0  0  0
   11.3240   28.4760   25.8080 C   0  0  0  0  0  0  0  0  0  0  0  0
   11.6130   31.9710   33.6390 H   0  0  0  0  0  0  0  0  0  0  0  0
   13.8380   28.9140   29.1490 C   0  0  0  0  0  0  0  0  0  0  0  0
   12.8120   27.9730   31.1760 C   0  0  0  0  0  0  0  0  0  0  0  0
   12.0720   29.4170   32.9760 C   0  0  0  0  0  0  0  0  0  0  0  0
    8.9920   28.0080   30.2910 C   0  0  0  0  0  0  0  0  0  0  0  0
    9.0810   30.4180   30.0030 C   0  0  0  0  0  0  0  0  0  0  0  0
   10.9120   27.4150   26.5610 C   0  0  0  0  0  0  0  0  0  0  0  0
    9.8480   26.5140   28.5930 C   0  0  0  0  0  0  0  0  0  0  0  0
   11.5960   28.3480   24.7640 H   0  0  0  0  0  0  0  0  0  0  0  0
   14.6100   29.9730   28.5080 C   0  0  0  0  0  0  0  0  0  0  0  0
   14.0490   27.5890   28.6790 C   0  0  0  0  0  0  0  0  0  0  0  0
   12.3360   28.1640   32.5070 C   0  0  0  0  0  0  0  0  0  0  0  0
   13.1400   26.6630   30.7210 C   0  0  0  0  0  0  0  0  0  0  0  0
   11.8140   29.5830   34.0180 H   0  0  0  0  0  0  0  0  0  0  0  0
    9.2200   26.6900   29.7870 C   0  0  0  0  0  0  0  0  0  0  0  0
    8.1510   28.2050   31.4140 C   0  0  0  0  0  0  0  0  0  0  0  0
    9.3780   31.2890   29.4350 H   0  0  0  0  0  0  0  0  0  0  0  0
    8.2270   30.5840   31.0760 C   0  0  0  0  0  0  0  0  0  0  0  0
   10.8820   26.4120   26.1420 H   0  0  0  0  0  0  0  0  0  0  0  0
    9.9360   25.5230   28.1530 H   0  0  0  0  0  0  0  0  0  0  0  0
   14.8680   31.2280   29.1180 C   0  0  0  0  0  0  0  0  0  0  0  0
   15.2670   29.7100   27.2650 C   0  0  0  0  0  0  0  0  0  0  0  0
   13.6500   26.4730   29.4700 C   0  0  0  0  0  0  0  0  0  0  0  0
   14.7160   27.3610   27.4330 C   0  0  0  0  0  0  0  0  0  0  0  0
   12.2520   27.2960   33.1570 H   0  0  0  0  0  0  0  0  0  0  0  0
   12.9440   25.8200   31.3790 H   0  0  0  0  0  0  0  0  0  0  0  0
    8.8120   25.8430   30.3340 H   0  0  0  0  0  0  0  0  0  0  0  0
    7.7700   27.3290   31.9340 H   0  0  0  0  0  0  0  0  0  0  0  0
    7.7810   29.4710   31.8150 C   0  0  0  0  0  0  0  0  0  0  0  0
    7.8920   31.5820   31.3420 H   0  0  0  0  0  0  0  0  0  0  0  0
   14.4870   31.4240   30.1110 H   0  0  0  0  0  0  0  0  0  0  0  0
   15.6310   32.1970   28.4960 C   0  0  0  0  0  0  0  0  0  0  0  0
   15.2480   28.3890   26.7180 C   0  0  0  0  0  0  0  0  0  0  0  0
   16.0110   30.7330   26.6280 C   0  0  0  0  0  0  0  0  0  0  0  0
   13.8390   25.4720   29.0910 H   0  0  0  0  0  0  0  0  0  0  0  0
   14.7870   26.3380   27.0710 H   0  0  0  0  0  0  0  0  0  0  0  0
    7.1230   29.6080   32.6690 H   0  0  0  0  0  0  0  0  0  0  0  0
   15.8120   33.1410   29.0020 H   0  0  0  0  0  0  0  0  0  0  0  0
   16.1830   31.9650   27.2210 C   0  0  0  0  0  0  0  0  0  0  0  0
   15.7370   28.2110   25.7630 H   0  0  0  0  0  0  0  0  0  0  0  0
   16.4780   30.5120   25.6700 H   0  0  0  0  0  0  0  0  0  0  0  0
   16.7690   32.7370   26.7280 H   0  0  0  0  0  0  0  0  0  0  0  0
   11.8190   30.8820   36.8550 C   0  0  0  0  0  0  0  0  0  0  0  0
   11.9840   30.7160   35.7930 H   0  0  0  0  0  0  0  0  0  0  0  0
   11.4460   29.7700   37.6670 C   0  0  0  0  0  0  0  0  0  0  0  0
   11.8830   32.1370   37.3850 C   0  0  0  0  0  0  0  0  0  0  0  0
   11.1710   29.9590   39.0540 C   0  0  0  0  0  0  0  0  0  0  0  0
   11.3240   28.4760   37.0850 C   0  0  0  0  0  0  0  0  0  0  0  0
   12.0590   33.0040   36.7540 H   0  0  0  0  0  0  0  0  0  0  0  0
   11.7970   32.3260   38.7960 C   0  0  0  0  0  0  0  0  0  0  0  0
   11.6310   31.2020   39.6540 C   0  0  0  0  0  0  0  0  0  0  0  0
   10.4130   28.9190   39.7300 C   0  0  0  0  0  0  0  0  0  0  0  0
   11.5960   28.3480   36.0400 H   0  0  0  0  0  0  0  0  0  0  0  0
   10.9120   27.4150   37.8370 C   0  0  0  0  0  0  0  0  0  0  0  0
   11.8770   33.6380   39.3510 C   0  0  0  0  0  0  0  0  0  0  0  0
   11.9290   31.3900   41.0620 C   0  0  0  0  0  0  0  0  0  0  0  0
    9.5400   29.1370   40.8790 C   0  0  0  0  0  0  0  0  0  0  0  0
   10.4090   27.6190   39.1550 C   0  0  0  0  0  0  0  0  0  0  0  0
   10.8820   26.4120   37.4180 H   0  0  0  0  0  0  0  0  0  0  0  0
   11.9550   34.4850   38.6730 H   0  0  0  0  0  0  0  0  0  0  0  0
   11.7880   33.8260   40.7000 C   0  0  0  0  0  0  0  0  0  0  0  0
   12.3260   30.3320   41.9750 C   0  0  0  0  0  0  0  0  0  0  0  0
   11.8250   32.7090   41.5880 C   0  0  0  0  0  0  0  0  0  0  0  0
    8.9920   28.0080   41.5680 C   0  0  0  0  0  0  0  0  0  0  0  0
    9.0810   30.4180   41.2790 C   0  0  0  0  0  0  0  0  0  0  0  0
    9.8480   26.5140   39.8700 C   0  0  0  0  0  0  0  0  0  0  0  0
   11.7470   34.8260   41.1250 H   0  0  0  0  0  0  0  0  0  0  0  0
   12.9840   29.0930   41.5870 C   0  0  0  0  0  0  0  0  0  0  0  0
   12.0560   30.5290   43.3590 C   0  0  0  0  0  0  0  0  0  0  0  0
   11.7580   32.9080   42.9990 C   0  0  0  0  0  0  0  0  0  0  0  0
    9.2200   26.6900   41.0640 C   0  0  0  0  0  0  0  0  0  0  0  0
    8.1510   28.2050   42.6900 C   0  0  0  0  0  0  0  0  0  0  0  0
    9.3780   31.2890   40.7110 H   0  0  0  0  0  0  0  0  0  0  0  0
    8.2270   30.5840   42.3520 C   0  0  0  0  0  0  0  0  0  0  0  0
    9.9360   25.5230   39.4300 H   0  0  0  0  0  0  0  0  0  0  0  0
   13.8380   28.9140   40.4250 C   0  0  0  0  0  0  0  0  0  0  0  0
   12.8120   27.9730   42.4520 C   0  0  0  0  0  0  0  0  0  0  0  0
   11.7680   31.8390   43.8480 C   0  0  0  0  0  0  0  0  0  0  0  0
   12.0720   29.4170   44.2520 C   0  0  0  0  0  0  0  0  0  0  0  0
   11.6390   33.9200   43.3770 H   0  0  0  0  0  0  0  0  0  0  0  0
    8.8120   25.8430   41.6100 H   0  0  0  0  0  0  0  0  0  0  0  0
    7.7700   27.3290   43.2100 H   0  0  0  0  0  0  0  0  0  0  0  0
    7.7810   29.4710   43.0910 C   0  0  0  0  0  0  0  0  0  0  0  0
    7.8920   31.5820   42.6190 H   0  0  0  0  0  0  0  0  0  0  0  0
   14.6100   29.9730   39.7850 C   0  0  0  0  0  0  0  0  0  0  0  0
   14.0490   27.5890   39.9550 C   0  0  0  0  0  0  0  0  0  0  0  0
   12.3360   28.1640   43.7840 C   0  0  0  0  0  0  0  0  0  0  0  0
   13.1400   26.6630   41.9970 C   0  0  0  0  0  0  0  0  0  0  0  0
   11.6130   31.9710   44.9160 H   0  0  0  0  0  0  0  0  0  0  0  0
   11.8140   29.5830   45.2950 H   0  0  0  0  0  0  0  0  0  0  0  0
    7.1230   29.6080   43.9450 H   0  0  0  0  0  0  0  0  0  0  0  0
   14.8680   31.2280   40.3940 C   0  0  0  0  0  0  0  0  0  0  0  0
   15.2670   29.7100   38.5410 C   0  0  0  0  0  0  0  0  0  0  0  0
   13.6500   26.4730   40.7470 C   0  0  0  0  0  0  0  0  0  0  0  0
   14.7160   27.3610   38.7090 C   0  0  0  0  0  0  0  0  0  0  0  0
   12.2520   27.2960   44.4330 H   0  0  0  0  0  0  0  0  0  0  0  0
   12.9440   25.8200   42.6560 H   0  0  0  0  0  0  0  0  0  0  0  0
   14.4870   31.4240   41.3870 H   0  0  0  0  0  0  0  0  0  0  0  0
   15.6310   32.1970   39.7720 C   0  0  0  0  0  0  0  0  0  0  0  0
   15.2480   28.3890   37.9940 C   0  0  0  0  0  0  0  0  0  0  0  0
   16.0110   30.7330   37.9040 C   0  0  0  0  0  0  0  0  0  0  0  0
   13.8390   25.4720   40.3670 H   0  0  0  0  0  0  0  0  0  0  0  0
   14.7870   26.3380   38.3470 H   0  0  0  0  0  0  0  0  0  0  0  0
   15.8120   33.1410   40.2790 H   0  0  0  0  0  0  0  0  0  0  0  0
   16.1830   31.9650   38.4970 C   0  0  0  0  0  0  0  0  0  0  0  0
   15.7370   28.2110   37.0390 H   0  0  0  0  0  0  0  0  0  0  0  0
   16.4780   30.5120   36.9460 H   0  0  0  0  0  0  0  0  0  0  0  0
   16.7690   32.7370   38.0050 H   0  0  0  0  0  0  0  0  0  0  0  0
  1  4  2  0  0  0  0
  2  1  1  0  0  0  0
  3  1  1  0  0  0  0
  3  5  2  0  0  0  0
  4  7  1  0  0  0  0
  4  8  1  0  0  0  0
  5  9  1  0  0  0  0
  6  3  1  0  0  0  0
  8 13  1  0  0  0  0
  9  8  2  0  0  0  0
  9 14  1  0  0  0  0
 10  5  1  0  0  0  0
 10 15  2  0  0  0  0
 11  6  1  0  0  0  0
 12  6  2  0  0  0  0
 12 16  1  0  0  0  0
 13 18  1  0  0  0  0
 13 19  2  0  0  0  0
 14 21  1  0  0  0  0
 15 22  1  0  0  0  0
 16 10  1  0  0  0  0
 17 12  1  0  0  0  0
 19 25  1  0  0  0  0
 20 14  2  0  0  0  0
 20 27  1  0  0  0  0
 21 19  1  0  0  0  0
 21 28  2  0  0  0  0
 22 30  2  0  0  0  0
 22 29  1  0  0  0  0
 23 15  1  0  0  0  0
 23 32  1  0  0  0  0
 24 16  2  0  0  0  0
 24 31  1  0  0  0  0
 26 20  1  0  0  0  0
 27 36  2  0  0  0  0
 28 38  1  0  0  0  0
 29 40  2  0  0  0  0
 30 42  1  0  0  0  0
 31 23  2  0  0  0  0
 32 39  2  0  0  0  0
 33 24  1  0  0  0  0
 34 45  1  0  0  0  0
 34 26  2  0  0  0  0
 35 26  1  0  0  0  0
 35 47  1  0  0  0  0
 36 28  1  0  0  0  0
 36 49  1  0  0  0  0
 37 27  1  0  0  0  0
 37 50  1  0  0  0  0
 39 29  1  0  0  0  0
 39 51  1  0  0  0  0
 40 53  1  0  0  0  0
 40 52  1  0  0  0  0
 41 30  1  0  0  0  0
 42 54  1  0  0  0  0
 42 53  2  0  0  0  0
 43 31  1  0  0  0  0
 44 32  1  0  0  0  0
 45 55  1  0  0  0  0
 46 34  1  0  0  0  0
 47 37  2  0  0  0  0
 48 35  2  0  0  0  0
 53 61  1  0  0  0  0
 56 62  1  0  0  0  0
 56 45  2  0  0  0  0
 57 46  2  0  0  0  0
 57 48  1  0  0  0  0
 58 63  2  0  0  0  0
 58 46  1  0  0  0  0
 59 47  1  0  0  0  0
 60 48  1  0  0  0  0
 63 56  1  0  0  0  0
 64 57  1  0  0  0  0
 65 58  1  0  0  0  0
 66 63  1  0  0  0  0
 67 70  2  0  0  0  0
 67 69  1  0  0  0  0
 68 67  1  0  0  0  0
 69 71  1  0  0  0  0
 70 74  1  0  0  0  0
 71 75  1  0  0  0  0
 71 76  2  0  0  0  0
 72 69  2  0  0  0  0
 72 78  1  0  0  0  0
 73 70  1  0  0  0  0
 74 79  1  0  0  0  0
 74 75  2  0  0  0  0
 75 80  1  0  0  0  0
 76 81  1  0  0  0  0
 77 72  1  0  0  0  0
 78 82  2  0  0  0  0
 79 85  2  0  0  0  0
 80 87  2  0  0  0  0
 80 86  1  0  0  0  0
 81 89  2  0  0  0  0
 81 88  1  0  0  0  0
 82 76  1  0  0  0  0
 82 90  1  0  0  0  0
 83 78  1  0  0  0  0
 84 79  1  0  0  0  0
 85 91  1  0  0  0  0
 85 87  1  0  0  0  0
 86 93  1  0  0  0  0
 87 94  1  0  0  0  0
 88 96  2  0  0  0  0
 89 98  1  0  0  0  0
 90 95  2  0  0  0  0
 92 86  2  0  0  0  0
 92101  1  0  0  0  0
 93102  1  0  0  0  0
 93103  2  0  0  0  0
 94104  1  0  0  0  0
 94102  2  0  0  0  0
 95 88  1  0  0  0  0
 95105  1  0  0  0  0
 96107  1  0  0  0  0
 96106  1  0  0  0  0
 97 89  1  0  0  0  0
 98108  1  0  0  0  0
 98107  2  0  0  0  0
 99 90  1  0  0  0  0
100 92  1  0  0  0  0
101111  2  0  0  0  0
102113  1  0  0  0  0
103114  1  0  0  0  0
107115  1  0  0  0  0
109116  1  0  0  0  0
109100  2  0  0  0  0
110100  1  0  0  0  0
110118  1  0  0  0  0
111103  1  0  0  0  0
111120  1  0  0  0  0
112101  1  0  0  0  0
112121  1  0  0  0  0
116122  1  0  0  0  0
117109  1  0  0  0  0
118112  2  0  0  0  0
119110  2  0  0  0  0
123128  1  0  0  0  0
123116  2  0  0  0  0
124117  2  0  0  0  0
124119  1  0  0  0  0
125129  2  0  0  0  0
125117  1  0  0  0  0
126118  1  0  0  0  0
127119  1  0  0  0  0
129123  1  0  0  0  0
130124  1  0  0  0  0
131125  1  0  0  0  0
132129  1  0  0  0  0
M  END
$$$$
