real_dimer_1_4.xyz
 OpenBabel06022119233D

132150  0  0  0  0  0  0  0  0999 V2000
   11.8770   33.6380   28.0750 C   0  0  0  0  0  0  0  0  0  0  0  0
   11.9550   34.4850   27.3970 H   0  0  0  0  0  0  0  0  0  0  0  0
   11.7970   32.3260   27.5200 C   0  0  0  0  0  0  0  0  0  0  0  0
   11.7880   33.8260   29.4240 C   0  0  0  0  0  0  0  0  0  0  0  0
   11.6310   31.2020   28.3770 C   0  0  0  0  0  0  0  0  0  0  0  0
   11.8830   32.1370   26.1090 C   0  0  0  0  0  0  0  0  0  0  0  0
   11.7470   34.8260   29.8480 H   0  0  0  0  0  0  0  0  0  0  0  0
   11.8250   32.7090   30.3110 C   0  0  0  0  0  0  0  0  0  0  0  0
   11.9290   31.3900   29.7860 C   0  0  0  0  0  0  0  0  0  0  0  0
   11.1710   29.9590   27.7770 C   0  0  0  0  0  0  0  0  0  0  0  0
   12.0590   33.0040   25.4780 H   0  0  0  0  0  0  0  0  0  0  0  0
   11.8190   30.8820   25.5780 C   0  0  0  0  0  0  0  0  0  0  0  0
   11.7580   32.9080   31.7230 C   0  0  0  0  0  0  0  0  0  0  0  0
   12.3260   30.3320   30.6990 C   0  0  0  0  0  0  0  0  0  0  0  0
   10.4130   28.9190   28.4540 C   0  0  0  0  0  0  0  0  0  0  0  0
   11.4460   29.7700   26.3900 C   0  0  0  0  0  0  0  0  0  0  0  0
   11.9840   30.7160   24.5170 H   0  0  0  0  0  0  0  0  0  0  0  0
   11.6390   33.9200   32.1000 H   0  0  0  0  0  0  0  0  0  0  0  0
   11.7680   31.8390   32.5720 C   0  0  0  0  0  0  0  0  0  0  0  0
   12.9840   29.0930   30.3110 C   0  0  0  0  0  0  0  0  0  0  0  0
   12.0560   30.5290   32.0830 C   0  0  0  0  0  0  0  0  0  0  0  0
    9.5400   29.1370   29.6030 C   0  0  0  0  0  0  0  0  0  0  0  0
   10.4090   27.6190   27.8790 C   0  0  0  0  0  0  0  0  0  0  0  0
   11.3240   28.4760   25.8080 C   0  0  0  0  0  0  0  0  0  0  0  0
   11.6130   31.9710   33.6390 H   0  0  0  0  0  0  0  0  0  0  0  0
   13.8380   28.9140   29.1490 C   0  0  0  0  0  0  0  0  0  0  0  0
   12.8120   27.9730   31.1760 C   0  0  0  0  0  0  0  0  0  0  0  0
   12.0720   29.4170   32.9760 C   0  0  0  0  0  0  0  0  0  0  0  0
    8.9920   28.0080   30.2910 C   0  0  0  0  0  0  0  0  0  0  0  0
    9.0810   30.4180   30.0030 C   0  0  0  0  0  0  0  0  0  0  0  0
   10.9120   27.4150   26.5610 C   0  0  0  0  0  0  0  0  0  0  0  0
    9.8480   26.5140   28.5930 C   0  0  0  0  0  0  0  0  0  0  0  0
   11.5960   28.3480   24.7640 H   0  0  0  0  0  0  0  0  0  0  0  0
   14.6100   29.9730   28.5080 C   0  0  0  0  0  0  0  0  0  0  0  0
   14.0490   27.5890   28.6790 C   0  0  0  0  0  0  0  0  0  0  0  0
   12.3360   28.1640   32.5070 C   0  0  0  0  0  0  0  0  0  0  0  0
   13.1400   26.6630   30.7210 C   0  0  0  0  0  0  0  0  0  0  0  0
   11.8140   29.5830   34.0180 H   0  0  0  0  0  0  0  0  0  0  0  0
    9.2200   26.6900   29.7870 C   0  0  0  0  0  0  0  0  0  0  0  0
    8.1510   28.2050   31.4140 C   0  0  0  0  0  0  0  0  0  0  0  0
    9.3780   31.2890   29.4350 H   0  0  0  0  0  0  0  0  0  0  0  0
    8.2270   30.5840   31.0760 C   0  0  0  0  0  0  0  0  0  0  0  0
   10.8820   26.4120   26.1420 H   0  0  0  0  0  0  0  0  0  0  0  0
    9.9360   25.5230   28.1530 H   0  0  0  0  0  0  0  0  0  0  0  0
   14.8680   31.2280   29.1180 C   0  0  0  0  0  0  0  0  0  0  0  0
   15.2670   29.7100   27.2650 C   0  0  0  0  0  0  0  0  0  0  0  0
   13.6500   26.4730   29.4700 C   0  0  0  0  0  0  0  0  0  0  0  0
   14.7160   27.3610   27.4330 C   0  0  0  0  0  0  0  0  0  0  0  0
   12.2520   27.2960   33.1570 H   0  0  0  0  0  0  0  0  0  0  0  0
   12.9440   25.8200   31.3790 H   0  0  0  0  0  0  0  0  0  0  0  0
    8.8120   25.8430   30.3340 H   0  0  0  0  0  0  0  0  0  0  0  0
    7.7700   27.3290   31.9340 H   0  0  0  0  0  0  0  0  0  0  0  0
    7.7810   29.4710   31.8150 C   0  0  0  0  0  0  0  0  0  0  0  0
    7.8920   31.5820   31.3420 H   0  0  0  0  0  0  0  0  0  0  0  0
   14.4870   31.4240   30.1110 H   0  0  0  0  0  0  0  0  0  0  0  0
   15.6310   32.1970   28.4960 C   0  0  0  0  0  0  0  0  0  0  0  0
   15.2480   28.3890   26.7180 C   0  0  0  0  0  0  0  0  0  0  0  0
   16.0110   30.7330   26.6280 C   0  0  0  0  0  0  0  0  0  0  0  0
   13.8390   25.4720   29.0910 H   0  0  0  0  0  0  0  0  0  0  0  0
   14.7870   26.3380   27.0710 H   0  0  0  0  0  0  0  0  0  0  0  0
    7.1230   29.6080   32.6690 H   0  0  0  0  0  0  0  0  0  0  0  0
   15.8120   33.1410   29.0020 H   0  0  0  0  0  0  0  0  0  0  0  0
   16.1830   31.9650   27.2210 C   0  0  0  0  0  0  0  0  0  0  0  0
   15.7370   28.2110   25.7630 H   0  0  0  0  0  0  0  0  0  0  0  0
   16.4780   30.5120   25.6700 H   0  0  0  0  0  0  0  0  0  0  0  0
   16.7690   32.7370   26.7280 H   0  0  0  0  0  0  0  0  0  0  0  0
   15.4050   30.5840   22.5210 C   0  0  0  0  0  0  0  0  0  0  0  0
   15.0700   31.5820   22.7880 H   0  0  0  0  0  0  0  0  0  0  0  0
   16.2590   30.4180   21.4480 C   0  0  0  0  0  0  0  0  0  0  0  0
   14.9580   29.4710   23.2600 C   0  0  0  0  0  0  0  0  0  0  0  0
   16.5560   31.2890   20.8800 H   0  0  0  0  0  0  0  0  0  0  0  0
   16.7170   29.1370   21.0480 C   0  0  0  0  0  0  0  0  0  0  0  0
   14.3000   29.6080   24.1140 H   0  0  0  0  0  0  0  0  0  0  0  0
   15.3280   28.2050   22.8590 C   0  0  0  0  0  0  0  0  0  0  0  0
   17.5910   28.9190   19.8990 C   0  0  0  0  0  0  0  0  0  0  0  0
   16.1690   28.0080   21.7360 C   0  0  0  0  0  0  0  0  0  0  0  0
   14.9480   27.3290   23.3790 H   0  0  0  0  0  0  0  0  0  0  0  0
   18.3480   29.9590   19.2220 C   0  0  0  0  0  0  0  0  0  0  0  0
   17.5870   27.6190   19.3240 C   0  0  0  0  0  0  0  0  0  0  0  0
   16.3970   26.6900   21.2320 C   0  0  0  0  0  0  0  0  0  0  0  0
   18.8090   31.2020   19.8220 C   0  0  0  0  0  0  0  0  0  0  0  0
   18.6240   29.7700   17.8350 C   0  0  0  0  0  0  0  0  0  0  0  0
   18.0900   27.4150   18.0060 C   0  0  0  0  0  0  0  0  0  0  0  0
   17.0260   26.5140   20.0380 C   0  0  0  0  0  0  0  0  0  0  0  0
   15.9900   25.8430   21.7790 H   0  0  0  0  0  0  0  0  0  0  0  0
   19.1070   31.3900   21.2310 C   0  0  0  0  0  0  0  0  0  0  0  0
   18.9750   32.3260   18.9650 C   0  0  0  0  0  0  0  0  0  0  0  0
   18.9960   30.8820   17.0230 C   0  0  0  0  0  0  0  0  0  0  0  0
   18.5010   28.4760   17.2530 C   0  0  0  0  0  0  0  0  0  0  0  0
   18.0600   26.4120   17.5870 H   0  0  0  0  0  0  0  0  0  0  0  0
   17.1140   25.5230   19.5980 H   0  0  0  0  0  0  0  0  0  0  0  0
   19.5040   30.3320   22.1440 C   0  0  0  0  0  0  0  0  0  0  0  0
   19.0030   32.7090   21.7560 C   0  0  0  0  0  0  0  0  0  0  0  0
   19.0550   33.6380   19.5200 C   0  0  0  0  0  0  0  0  0  0  0  0
   19.0610   32.1370   17.5540 C   0  0  0  0  0  0  0  0  0  0  0  0
   19.1620   30.7160   15.9620 H   0  0  0  0  0  0  0  0  0  0  0  0
   18.7740   28.3480   16.2090 H   0  0  0  0  0  0  0  0  0  0  0  0
   20.1620   29.0930   21.7560 C   0  0  0  0  0  0  0  0  0  0  0  0
   19.2330   30.5290   23.5280 C   0  0  0  0  0  0  0  0  0  0  0  0
   18.9360   32.9080   23.1680 C   0  0  0  0  0  0  0  0  0  0  0  0
   18.9660   33.8260   20.8690 C   0  0  0  0  0  0  0  0  0  0  0  0
   19.1320   34.4850   18.8420 H   0  0  0  0  0  0  0  0  0  0  0  0
   19.2370   33.0040   16.9230 H   0  0  0  0  0  0  0  0  0  0  0  0
   21.0160   28.9140   20.5940 C   0  0  0  0  0  0  0  0  0  0  0  0
   19.9900   27.9730   22.6210 C   0  0  0  0  0  0  0  0  0  0  0  0
   18.9450   31.8390   24.0170 C   0  0  0  0  0  0  0  0  0  0  0  0
   19.2500   29.4170   24.4210 C   0  0  0  0  0  0  0  0  0  0  0  0
   18.8170   33.9200   23.5450 H   0  0  0  0  0  0  0  0  0  0  0  0
   18.9250   34.8260   21.2930 H   0  0  0  0  0  0  0  0  0  0  0  0
   21.7880   29.9730   19.9530 C   0  0  0  0  0  0  0  0  0  0  0  0
   21.2270   27.5890   20.1240 C   0  0  0  0  0  0  0  0  0  0  0  0
   19.5130   28.1640   23.9520 C   0  0  0  0  0  0  0  0  0  0  0  0
   20.3180   26.6630   22.1660 C   0  0  0  0  0  0  0  0  0  0  0  0
   18.7910   31.9710   25.0850 H   0  0  0  0  0  0  0  0  0  0  0  0
   18.9920   29.5830   25.4630 H   0  0  0  0  0  0  0  0  0  0  0  0
   22.0450   31.2280   20.5630 C   0  0  0  0  0  0  0  0  0  0  0  0
   22.4450   29.7100   18.7100 C   0  0  0  0  0  0  0  0  0  0  0  0
   20.8280   26.4730   20.9150 C   0  0  0  0  0  0  0  0  0  0  0  0
   21.8940   27.3610   18.8780 C   0  0  0  0  0  0  0  0  0  0  0  0
   19.4300   27.2960   24.6020 H   0  0  0  0  0  0  0  0  0  0  0  0
   20.1220   25.8200   22.8240 H   0  0  0  0  0  0  0  0  0  0  0  0
   21.6640   31.4240   21.5560 H   0  0  0  0  0  0  0  0  0  0  0  0
   22.8090   32.1970   19.9410 C   0  0  0  0  0  0  0  0  0  0  0  0
   22.4260   28.3890   18.1630 C   0  0  0  0  0  0  0  0  0  0  0  0
   23.1890   30.7330   18.0730 C   0  0  0  0  0  0  0  0  0  0  0  0
   21.0170   25.4720   20.5360 H   0  0  0  0  0  0  0  0  0  0  0  0
   21.9650   26.3380   18.5160 H   0  0  0  0  0  0  0  0  0  0  0  0
   22.9900   33.1410   20.4470 H   0  0  0  0  0  0  0  0  0  0  0  0
   23.3610   31.9650   18.6660 C   0  0  0  0  0  0  0  0  0  0  0  0
   22.9150   28.2110   17.2080 H   0  0  0  0  0  0  0  0  0  0  0  0
   23.6560   30.5120   17.1150 H   0  0  0  0  0  0  0  0  0  0  0  0
   23.9460   32.7370   18.1730 H   0  0  0  0  0  0  0  0  0  0  0  0
  1  4  2  0  0  0  0
  2  1  1  0  0  0  0
  3  1  1  0  0  0  0
  3  5  2  0  0  0  0
  4  7  1  0  0  0  0
  4  8  1  0  0  0  0
  5  9  1  0  0  0  0
  6  3  1  0  0  0  0
  8 13  1  0  0  0  0
  9  8  2  0  0  0  0
  9 14  1  0  0  0  0
 10  5  1  0  0  0  0
 10 15  2  0  0  0  0
 11  6  1  0  0  0  0
 12  6  2  0  0  0  0
 12 16  1  0  0  0  0
 13 18  1  0  0  0  0
 13 19  2  0  0  0  0
 14 21  1  0  0  0  0
 15 22  1  0  0  0  0
 16 10  1  0  0  0  0
 17 12  1  0  0  0  0
 19 25  1  0  0  0  0
 20 14  2  0  0  0  0
 20 27  1  0  0  0  0
 21 19  1  0  0  0  0
 21 28  2  0  0  0  0
 22 30  2  0  0  0  0
 22 29  1  0  0  0  0
 23 15  1  0  0  0  0
 23 32  1  0  0  0  0
 24 16  2  0  0  0  0
 24 31  1  0  0  0  0
 26 20  1  0  0  0  0
 27 36  2  0  0  0  0
 28 38  1  0  0  0  0
 29 40  2  0  0  0  0
 30 42  1  0  0  0  0
 31 23  2  0  0  0  0
 32 39  2  0  0  0  0
 33 24  1  0  0  0  0
 34 45  1  0  0  0  0
 34 26  2  0  0  0  0
 35 26  1  0  0  0  0
 35 47  1  0  0  0  0
 36 28  1  0  0  0  0
 36 49  1  0  0  0  0
 37 27  1  0  0  0  0
 37 50  1  0  0  0  0
 39 29  1  0  0  0  0
 39 51  1  0  0  0  0
 40 53  1  0  0  0  0
 40 52  1  0  0  0  0
 41 30  1  0  0  0  0
 42 54  1  0  0  0  0
 42 53  2  0  0  0  0
 43 31  1  0  0  0  0
 44 32  1  0  0  0  0
 45 55  1  0  0  0  0
 46 34  1  0  0  0  0
 47 37  2  0  0  0  0
 48 35  2  0  0  0  0
 53 61  1  0  0  0  0
 56 62  1  0  0  0  0
 56 45  2  0  0  0  0
 57 46  2  0  0  0  0
 57 48  1  0  0  0  0
 58 63  2  0  0  0  0
 58 46  1  0  0  0  0
 59 47  1  0  0  0  0
 60 48  1  0  0  0  0
 63 56  1  0  0  0  0
 64 57  1  0  0  0  0
 65 58  1  0  0  0  0
 66 63  1  0  0  0  0
 67 68  1  0  0  0  0
 67 70  1  0  0  0  0
 69 67  2  0  0  0  0
 70 73  1  0  0  0  0
 71 69  1  0  0  0  0
 72 69  1  0  0  0  0
 72 76  1  0  0  0  0
 74 70  2  0  0  0  0
 74 77  1  0  0  0  0
 75 72  2  0  0  0  0
 76 74  1  0  0  0  0
 78 81  1  0  0  0  0
 78 75  1  0  0  0  0
 79 75  1  0  0  0  0
 79 84  2  0  0  0  0
 80 76  2  0  0  0  0
 80 85  1  0  0  0  0
 81 86  1  0  0  0  0
 82 78  2  0  0  0  0
 83 79  1  0  0  0  0
 84 80  1  0  0  0  0
 86 93  2  0  0  0  0
 86 92  1  0  0  0  0
 87 94  1  0  0  0  0
 87 81  2  0  0  0  0
 88 95  2  0  0  0  0
 88 82  1  0  0  0  0
 89 82  1  0  0  0  0
 89 83  2  0  0  0  0
 90 83  1  0  0  0  0
 91 84  1  0  0  0  0
 92 99  1  0  0  0  0
 93100  1  0  0  0  0
 94101  2  0  0  0  0
 95 87  1  0  0  0  0
 96 88  1  0  0  0  0
 97 89  1  0  0  0  0
 98 92  2  0  0  0  0
 98105  1  0  0  0  0
 99106  1  0  0  0  0
 99107  2  0  0  0  0
100108  1  0  0  0  0
100106  2  0  0  0  0
101109  1  0  0  0  0
101 93  1  0  0  0  0
102 94  1  0  0  0  0
103 95  1  0  0  0  0
104 98  1  0  0  0  0
105112  2  0  0  0  0
106114  1  0  0  0  0
107115  1  0  0  0  0
110116  1  0  0  0  0
110104  2  0  0  0  0
111104  1  0  0  0  0
111118  1  0  0  0  0
112107  1  0  0  0  0
112120  1  0  0  0  0
113105  1  0  0  0  0
113121  1  0  0  0  0
116122  1  0  0  0  0
117110  1  0  0  0  0
118113  2  0  0  0  0
119111  2  0  0  0  0
123128  1  0  0  0  0
123116  2  0  0  0  0
124117  2  0  0  0  0
124119  1  0  0  0  0
125129  2  0  0  0  0
125117  1  0  0  0  0
126118  1  0  0  0  0
127119  1  0  0  0  0
129123  1  0  0  0  0
130124  1  0  0  0  0
131125  1  0  0  0  0
132129  1  0  0  0  0
M  END
$$$$
